data_image0
_chemical_formula_structural       MoS2MoS2MoS2MoS2MoS2MoS2MoS2MoS2MoS2MoS2MoS2MoS2MoS2MoS2MoS2MoS2MoS2MoS2MoS2MoS2MoS2MoS2MoS2MoS2MoS2MoS2MoS2MoS2MoS2MoS2MoS2MoS2MoS2MoS2MoS2MoS2MoS2MoS2MoS2MoS2MoS2MoS2MoS2MoS2MoS2MoS2MoS2MoS2MoS2MoS2MoS2MoS2MoS2MoS2MoS2MoS2Au128
_chemical_formula_sum              "Mo56 S112 Au128"
_cell_length_a       22.1032
_cell_length_b       22.3322
_cell_length_c       28
_cell_angle_alpha    90
_cell_angle_beta     90
_cell_angle_gamma    90

_space_group_name_H-M_alt    "P 1"
_space_group_IT_number       1

loop_
  _space_group_symop_operation_xyz
  'x, y, z'

loop_
  _atom_site_type_symbol
  _atom_site_label
  _atom_site_symmetry_multiplicity
  _atom_site_fract_x
  _atom_site_fract_y
  _atom_site_fract_z
  _atom_site_occupancy
  Mo  Mo1       1.0  0.08334  0.07143  0.32321  1.0000
  S   S1        1.0  0.12500  0.00000  0.37910  1.0000
  S   S2        1.0  0.12500  0.00000  0.26732  1.0000
  Mo  Mo2       1.0  0.08334  0.21429  0.32321  1.0000
  S   S3        1.0  0.12500  0.14286  0.37910  1.0000
  S   S4        1.0  0.12500  0.14286  0.26732  1.0000
  Mo  Mo3       1.0  0.08334  0.35714  0.32321  1.0000
  S   S5        1.0  0.12500  0.28571  0.37910  1.0000
  S   S6        1.0  0.12500  0.28571  0.26732  1.0000
  Mo  Mo4       1.0  0.08334  0.50000  0.32321  1.0000
  S   S7        1.0  0.12500  0.42857  0.37910  1.0000
  S   S8        1.0  0.12500  0.42857  0.26732  1.0000
  Mo  Mo5       1.0  0.08334  0.64286  0.32321  1.0000
  S   S9        1.0  0.12500  0.57143  0.37910  1.0000
  S   S10       1.0  0.12500  0.57143  0.26732  1.0000
  Mo  Mo6       1.0  0.08334  0.78571  0.32321  1.0000
  S   S11       1.0  0.12500  0.71428  0.37910  1.0000
  S   S12       1.0  0.12500  0.71428  0.26732  1.0000
  Mo  Mo7       1.0  0.08334  0.92857  0.32321  1.0000
  S   S13       1.0  0.12500  0.85714  0.37910  1.0000
  S   S14       1.0  0.12500  0.85714  0.26732  1.0000
  Mo  Mo8       1.0  0.20834  0.14286  0.32321  1.0000
  S   S15       1.0  0.25000  0.07143  0.37910  1.0000
  S   S16       1.0  0.25000  0.07143  0.26732  1.0000
  Mo  Mo9       1.0  0.20834  0.28571  0.32321  1.0000
  S   S17       1.0  0.25000  0.21429  0.37910  1.0000
  S   S18       1.0  0.25000  0.21429  0.26732  1.0000
  Mo  Mo10      1.0  0.20834  0.42857  0.32321  1.0000
  S   S19       1.0  0.25000  0.35714  0.37910  1.0000
  S   S20       1.0  0.25000  0.35714  0.26732  1.0000
  Mo  Mo11      1.0  0.20834  0.57143  0.32321  1.0000
  S   S21       1.0  0.25000  0.50000  0.37910  1.0000
  S   S22       1.0  0.25000  0.50000  0.26732  1.0000
  Mo  Mo12      1.0  0.20834  0.71429  0.32321  1.0000
  S   S23       1.0  0.25000  0.64286  0.37910  1.0000
  S   S24       1.0  0.25000  0.64286  0.26732  1.0000
  Mo  Mo13      1.0  0.20834  0.85714  0.32321  1.0000
  S   S25       1.0  0.25000  0.78571  0.37910  1.0000
  S   S26       1.0  0.25000  0.78571  0.26732  1.0000
  Mo  Mo14      1.0  0.20834  0.00000  0.32321  1.0000
  S   S27       1.0  0.25000  0.92857  0.37910  1.0000
  S   S28       1.0  0.25000  0.92857  0.26732  1.0000
  Mo  Mo15      1.0  0.33334  0.07143  0.32321  1.0000
  S   S29       1.0  0.37500  0.00000  0.37910  1.0000
  S   S30       1.0  0.37500  0.00000  0.26732  1.0000
  Mo  Mo16      1.0  0.33334  0.21429  0.32321  1.0000
  S   S31       1.0  0.37500  0.14286  0.37910  1.0000
  S   S32       1.0  0.37500  0.14286  0.26732  1.0000
  Mo  Mo17      1.0  0.33334  0.35714  0.32321  1.0000
  S   S33       1.0  0.37500  0.28571  0.37910  1.0000
  S   S34       1.0  0.37500  0.28571  0.26732  1.0000
  Mo  Mo18      1.0  0.33334  0.50000  0.32321  1.0000
  S   S35       1.0  0.37500  0.42857  0.37910  1.0000
  S   S36       1.0  0.37500  0.42857  0.26732  1.0000
  Mo  Mo19      1.0  0.33334  0.64286  0.32321  1.0000
  S   S37       1.0  0.37500  0.57143  0.37910  1.0000
  S   S38       1.0  0.37500  0.57143  0.26732  1.0000
  Mo  Mo20      1.0  0.33334  0.78571  0.32321  1.0000
  S   S39       1.0  0.37500  0.71428  0.37910  1.0000
  S   S40       1.0  0.37500  0.71428  0.26732  1.0000
  Mo  Mo21      1.0  0.33334  0.92857  0.32321  1.0000
  S   S41       1.0  0.37500  0.85714  0.37910  1.0000
  S   S42       1.0  0.37500  0.85714  0.26732  1.0000
  Mo  Mo22      1.0  0.45834  0.14286  0.32321  1.0000
  S   S43       1.0  0.50000  0.07143  0.37910  1.0000
  S   S44       1.0  0.50000  0.07143  0.26732  1.0000
  Mo  Mo23      1.0  0.45834  0.28571  0.32321  1.0000
  S   S45       1.0  0.50000  0.21429  0.37910  1.0000
  S   S46       1.0  0.50000  0.21429  0.26732  1.0000
  Mo  Mo24      1.0  0.45834  0.42857  0.32321  1.0000
  S   S47       1.0  0.50000  0.35714  0.37910  1.0000
  S   S48       1.0  0.50000  0.35714  0.26732  1.0000
  Mo  Mo25      1.0  0.45834  0.57143  0.32321  1.0000
  S   S49       1.0  0.50000  0.50000  0.37910  1.0000
  S   S50       1.0  0.50000  0.50000  0.26732  1.0000
  Mo  Mo26      1.0  0.45834  0.71429  0.32321  1.0000
  S   S51       1.0  0.50000  0.64286  0.37910  1.0000
  S   S52       1.0  0.50000  0.64286  0.26732  1.0000
  Mo  Mo27      1.0  0.45834  0.85714  0.32321  1.0000
  S   S53       1.0  0.50000  0.78571  0.37910  1.0000
  S   S54       1.0  0.50000  0.78571  0.26732  1.0000
  Mo  Mo28      1.0  0.45834  0.00000  0.32321  1.0000
  S   S55       1.0  0.50000  0.92857  0.37910  1.0000
  S   S56       1.0  0.50000  0.92857  0.26732  1.0000
  Mo  Mo29      1.0  0.58334  0.07143  0.32321  1.0000
  S   S57       1.0  0.62500  0.00000  0.37910  1.0000
  S   S58       1.0  0.62500  0.00000  0.26732  1.0000
  Mo  Mo30      1.0  0.58334  0.21429  0.32321  1.0000
  S   S59       1.0  0.62500  0.14286  0.37910  1.0000
  S   S60       1.0  0.62500  0.14286  0.26732  1.0000
  Mo  Mo31      1.0  0.58334  0.35714  0.32321  1.0000
  S   S61       1.0  0.62500  0.28571  0.37910  1.0000
  S   S62       1.0  0.62500  0.28571  0.26732  1.0000
  Mo  Mo32      1.0  0.58334  0.50000  0.32321  1.0000
  S   S63       1.0  0.62500  0.42857  0.37910  1.0000
  S   S64       1.0  0.62500  0.42857  0.26732  1.0000
  Mo  Mo33      1.0  0.58334  0.64286  0.32321  1.0000
  S   S65       1.0  0.62500  0.57143  0.37910  1.0000
  S   S66       1.0  0.62500  0.57143  0.26732  1.0000
  Mo  Mo34      1.0  0.58334  0.78572  0.32321  1.0000
  S   S67       1.0  0.62500  0.71429  0.37910  1.0000
  S   S68       1.0  0.62500  0.71429  0.26732  1.0000
  Mo  Mo35      1.0  0.58334  0.92857  0.32321  1.0000
  S   S69       1.0  0.62500  0.85714  0.37910  1.0000
  S   S70       1.0  0.62500  0.85714  0.26732  1.0000
  Mo  Mo36      1.0  0.70834  0.14286  0.32321  1.0000
  S   S71       1.0  0.75000  0.07143  0.37910  1.0000
  S   S72       1.0  0.75000  0.07143  0.26732  1.0000
  Mo  Mo37      1.0  0.70834  0.28572  0.32321  1.0000
  S   S73       1.0  0.75000  0.21429  0.37910  1.0000
  S   S74       1.0  0.75000  0.21429  0.26732  1.0000
  Mo  Mo38      1.0  0.70834  0.42857  0.32321  1.0000
  S   S75       1.0  0.75000  0.35714  0.37910  1.0000
  S   S76       1.0  0.75000  0.35714  0.26732  1.0000
  Mo  Mo39      1.0  0.70834  0.57143  0.32321  1.0000
  S   S77       1.0  0.75000  0.50000  0.37910  1.0000
  S   S78       1.0  0.75000  0.50000  0.26732  1.0000
  Mo  Mo40      1.0  0.70834  0.71429  0.32321  1.0000
  S   S79       1.0  0.75000  0.64286  0.37910  1.0000
  S   S80       1.0  0.75000  0.64286  0.26732  1.0000
  Mo  Mo41      1.0  0.70834  0.85714  0.32321  1.0000
  S   S81       1.0  0.75000  0.78571  0.37910  1.0000
  S   S82       1.0  0.75000  0.78571  0.26732  1.0000
  Mo  Mo42      1.0  0.70834  0.00000  0.32321  1.0000
  S   S83       1.0  0.75000  0.92857  0.37910  1.0000
  S   S84       1.0  0.75000  0.92857  0.26732  1.0000
  Mo  Mo43      1.0  0.83334  0.07143  0.32321  1.0000
  S   S85       1.0  0.87500  0.00000  0.37910  1.0000
  S   S86       1.0  0.87500  0.00000  0.26732  1.0000
  Mo  Mo44      1.0  0.83334  0.21429  0.32321  1.0000
  S   S87       1.0  0.87500  0.14286  0.37910  1.0000
  S   S88       1.0  0.87500  0.14286  0.26732  1.0000
  Mo  Mo45      1.0  0.83334  0.35714  0.32321  1.0000
  S   S89       1.0  0.87500  0.28571  0.37910  1.0000
  S   S90       1.0  0.87500  0.28571  0.26732  1.0000
  Mo  Mo46      1.0  0.83334  0.50000  0.32321  1.0000
  S   S91       1.0  0.87500  0.42857  0.37910  1.0000
  S   S92       1.0  0.87500  0.42857  0.26732  1.0000
  Mo  Mo47      1.0  0.83334  0.64286  0.32321  1.0000
  S   S93       1.0  0.87500  0.57143  0.37910  1.0000
  S   S94       1.0  0.87500  0.57143  0.26732  1.0000
  Mo  Mo48      1.0  0.83334  0.78571  0.32321  1.0000
  S   S95       1.0  0.87500  0.71428  0.37910  1.0000
  S   S96       1.0  0.87500  0.71428  0.26732  1.0000
  Mo  Mo49      1.0  0.83334  0.92857  0.32321  1.0000
  S   S97       1.0  0.87500  0.85714  0.37910  1.0000
  S   S98       1.0  0.87500  0.85714  0.26732  1.0000
  Mo  Mo50      1.0  0.95834  0.14286  0.32321  1.0000
  S   S99       1.0  0.00000  0.07143  0.37910  1.0000
  S   S100      1.0  0.00000  0.07143  0.26732  1.0000
  Mo  Mo51      1.0  0.95834  0.28572  0.32321  1.0000
  S   S101      1.0  0.00000  0.21428  0.37910  1.0000
  S   S102      1.0  0.00000  0.21428  0.26732  1.0000
  Mo  Mo52      1.0  0.95834  0.42857  0.32321  1.0000
  S   S103      1.0  0.00000  0.35714  0.37910  1.0000
  S   S104      1.0  0.00000  0.35714  0.26732  1.0000
  Mo  Mo53      1.0  0.95834  0.57143  0.32321  1.0000
  S   S105      1.0  0.00000  0.50000  0.37910  1.0000
  S   S106      1.0  0.00000  0.50000  0.26732  1.0000
  Mo  Mo54      1.0  0.95834  0.71429  0.32321  1.0000
  S   S107      1.0  0.00000  0.64286  0.37910  1.0000
  S   S108      1.0  0.00000  0.64286  0.26732  1.0000
  Mo  Mo55      1.0  0.95834  0.85714  0.32321  1.0000
  S   S109      1.0  0.00000  0.78571  0.37910  1.0000
  S   S110      1.0  0.00000  0.78571  0.26732  1.0000
  Mo  Mo56      1.0  0.95834  0.00000  0.32321  1.0000
  S   S111      1.0  0.00000  0.92857  0.37910  1.0000
  S   S112      1.0  0.00000  0.92857  0.26732  1.0000
  Au  Au1       1.0  0.09967  0.50000  0.47196  1.0000
  Au  Au2       1.0  0.16639  0.61438  0.47196  1.0000
  Au  Au3       1.0  0.23311  0.72876  0.47196  1.0000
  Au  Au4       1.0  0.16639  0.38562  0.47196  1.0000
  Au  Au5       1.0  0.23311  0.50000  0.47196  1.0000
  Au  Au6       1.0  0.29984  0.61438  0.47196  1.0000
  Au  Au7       1.0  0.36656  0.72876  0.47196  1.0000
  Au  Au8       1.0  0.23311  0.27124  0.47196  1.0000
  Au  Au9       1.0  0.29984  0.38562  0.47196  1.0000
  Au  Au10      1.0  0.36656  0.50000  0.47196  1.0000
  Au  Au11      1.0  0.43328  0.61438  0.47196  1.0000
  Au  Au12      1.0  0.50000  0.72876  0.47196  1.0000
  Au  Au13      1.0  0.29984  0.15685  0.47196  1.0000
  Au  Au14      1.0  0.36656  0.27124  0.47196  1.0000
  Au  Au15      1.0  0.43328  0.38562  0.47196  1.0000
  Au  Au16      1.0  0.50000  0.50000  0.47196  1.0000
  Au  Au17      1.0  0.56672  0.61438  0.47196  1.0000
  Au  Au18      1.0  0.63345  0.72876  0.47196  1.0000
  Au  Au19      1.0  0.43328  0.15685  0.47196  1.0000
  Au  Au20      1.0  0.50000  0.27124  0.47196  1.0000
  Au  Au21      1.0  0.56672  0.38562  0.47196  1.0000
  Au  Au22      1.0  0.63345  0.50000  0.47196  1.0000
  Au  Au23      1.0  0.70017  0.61438  0.47196  1.0000
  Au  Au24      1.0  0.76689  0.72876  0.47196  1.0000
  Au  Au25      1.0  0.56672  0.15685  0.47196  1.0000
  Au  Au26      1.0  0.63345  0.27124  0.47196  1.0000
  Au  Au27      1.0  0.70017  0.38562  0.47196  1.0000
  Au  Au28      1.0  0.76689  0.50000  0.47196  1.0000
  Au  Au29      1.0  0.83361  0.61438  0.47196  1.0000
  Au  Au30      1.0  0.16639  0.53812  0.55797  1.0000
  Au  Au31      1.0  0.23311  0.65251  0.55797  1.0000
  Au  Au32      1.0  0.29984  0.76689  0.55797  1.0000
  Au  Au33      1.0  0.23311  0.42374  0.55797  1.0000
  Au  Au34      1.0  0.29984  0.53812  0.55797  1.0000
  Au  Au35      1.0  0.36656  0.65251  0.55797  1.0000
  Au  Au36      1.0  0.43328  0.76689  0.55797  1.0000
  Au  Au37      1.0  0.29984  0.30936  0.55797  1.0000
  Au  Au38      1.0  0.36656  0.42374  0.55797  1.0000
  Au  Au39      1.0  0.43328  0.53812  0.55797  1.0000
  Au  Au40      1.0  0.50000  0.65251  0.55797  1.0000
  Au  Au41      1.0  0.56672  0.76689  0.55797  1.0000
  Au  Au42      1.0  0.36656  0.19498  0.55797  1.0000
  Au  Au43      1.0  0.43328  0.30936  0.55797  1.0000
  Au  Au44      1.0  0.50000  0.42374  0.55797  1.0000
  Au  Au45      1.0  0.56672  0.53812  0.55797  1.0000
  Au  Au46      1.0  0.63345  0.65251  0.55797  1.0000
  Au  Au47      1.0  0.70017  0.76689  0.55797  1.0000
  Au  Au48      1.0  0.50000  0.19498  0.55797  1.0000
  Au  Au49      1.0  0.56672  0.30936  0.55797  1.0000
  Au  Au50      1.0  0.63345  0.42374  0.55797  1.0000
  Au  Au51      1.0  0.70017  0.53812  0.55797  1.0000
  Au  Au52      1.0  0.76689  0.65251  0.55797  1.0000
  Au  Au53      1.0  0.63345  0.19498  0.55797  1.0000
  Au  Au54      1.0  0.70017  0.30936  0.55797  1.0000
  Au  Au55      1.0  0.76689  0.42374  0.55797  1.0000
  Au  Au56      1.0  0.83361  0.53812  0.55797  1.0000
  Au  Au57      1.0  0.16639  0.46187  0.64398  1.0000
  Au  Au58      1.0  0.23311  0.57625  0.64398  1.0000
  Au  Au59      1.0  0.29984  0.69063  0.64398  1.0000
  Au  Au60      1.0  0.36656  0.80501  0.64398  1.0000
  Au  Au61      1.0  0.23311  0.34749  0.64398  1.0000
  Au  Au62      1.0  0.29984  0.46187  0.64398  1.0000
  Au  Au63      1.0  0.36656  0.57625  0.64398  1.0000
  Au  Au64      1.0  0.43328  0.69063  0.64398  1.0000
  Au  Au65      1.0  0.50000  0.80501  0.64398  1.0000
  Au  Au66      1.0  0.29984  0.23311  0.64398  1.0000
  Au  Au67      1.0  0.36656  0.34749  0.64398  1.0000
  Au  Au68      1.0  0.43328  0.46187  0.64398  1.0000
  Au  Au69      1.0  0.50000  0.57625  0.64398  1.0000
  Au  Au70      1.0  0.56672  0.69063  0.64398  1.0000
  Au  Au71      1.0  0.63345  0.80501  0.64398  1.0000
  Au  Au72      1.0  0.43328  0.23311  0.64398  1.0000
  Au  Au73      1.0  0.50000  0.34749  0.64398  1.0000
  Au  Au74      1.0  0.56672  0.46187  0.64398  1.0000
  Au  Au75      1.0  0.63345  0.57625  0.64398  1.0000
  Au  Au76      1.0  0.70017  0.69063  0.64398  1.0000
  Au  Au77      1.0  0.56672  0.23311  0.64398  1.0000
  Au  Au78      1.0  0.63345  0.34749  0.64398  1.0000
  Au  Au79      1.0  0.70017  0.46187  0.64398  1.0000
  Au  Au80      1.0  0.76689  0.57625  0.64398  1.0000
  Au  Au81      1.0  0.70017  0.23311  0.64398  1.0000
  Au  Au82      1.0  0.76689  0.34749  0.64398  1.0000
  Au  Au83      1.0  0.83361  0.46187  0.64398  1.0000
  Au  Au84      1.0  0.29984  0.84314  0.47196  1.0000
  Au  Au85      1.0  0.43328  0.84314  0.47196  1.0000
  Au  Au86      1.0  0.56672  0.84314  0.47196  1.0000
  Au  Au87      1.0  0.70017  0.84314  0.47196  1.0000
  Au  Au88      1.0  0.70017  0.15685  0.47196  1.0000
  Au  Au89      1.0  0.76689  0.27124  0.47196  1.0000
  Au  Au90      1.0  0.83361  0.38562  0.47196  1.0000
  Au  Au91      1.0  0.90034  0.50000  0.47196  1.0000
  Au  Au92      1.0  0.09967  0.50000  0.72999  1.0000
  Au  Au93      1.0  0.16639  0.61438  0.72999  1.0000
  Au  Au94      1.0  0.23311  0.72876  0.72999  1.0000
  Au  Au95      1.0  0.16639  0.38562  0.72999  1.0000
  Au  Au96      1.0  0.23311  0.50000  0.72999  1.0000
  Au  Au97      1.0  0.29984  0.61438  0.72999  1.0000
  Au  Au98      1.0  0.36656  0.72876  0.72999  1.0000
  Au  Au99      1.0  0.23311  0.27124  0.72999  1.0000
  Au  Au100     1.0  0.29984  0.38562  0.72999  1.0000
  Au  Au101     1.0  0.36656  0.50000  0.72999  1.0000
  Au  Au102     1.0  0.43328  0.61438  0.72999  1.0000
  Au  Au103     1.0  0.50000  0.72876  0.72999  1.0000
  Au  Au104     1.0  0.29984  0.15685  0.72999  1.0000
  Au  Au105     1.0  0.36656  0.27124  0.72999  1.0000
  Au  Au106     1.0  0.43328  0.38562  0.72999  1.0000
  Au  Au107     1.0  0.50000  0.50000  0.72999  1.0000
  Au  Au108     1.0  0.56672  0.61438  0.72999  1.0000
  Au  Au109     1.0  0.63345  0.72876  0.72999  1.0000
  Au  Au110     1.0  0.43328  0.15685  0.72999  1.0000
  Au  Au111     1.0  0.50000  0.27124  0.72999  1.0000
  Au  Au112     1.0  0.56672  0.38562  0.72999  1.0000
  Au  Au113     1.0  0.63345  0.50000  0.72999  1.0000
  Au  Au114     1.0  0.70017  0.61438  0.72999  1.0000
  Au  Au115     1.0  0.76689  0.72876  0.72999  1.0000
  Au  Au116     1.0  0.56672  0.15685  0.72999  1.0000
  Au  Au117     1.0  0.63345  0.27124  0.72999  1.0000
  Au  Au118     1.0  0.70017  0.38562  0.72999  1.0000
  Au  Au119     1.0  0.76689  0.50000  0.72999  1.0000
  Au  Au120     1.0  0.83361  0.61438  0.72999  1.0000
  Au  Au121     1.0  0.29984  0.84314  0.72999  1.0000
  Au  Au122     1.0  0.43328  0.84314  0.72999  1.0000
  Au  Au123     1.0  0.56672  0.84314  0.72999  1.0000
  Au  Au124     1.0  0.70017  0.84314  0.72999  1.0000
  Au  Au125     1.0  0.70017  0.15685  0.72999  1.0000
  Au  Au126     1.0  0.76689  0.27124  0.72999  1.0000
  Au  Au127     1.0  0.83361  0.38562  0.72999  1.0000
  Au  Au128     1.0  0.90034  0.50000  0.72999  1.0000
